FoamFile
{
    version     2.0;
    format      ascii;
    class       dictionary;
    object      blockMeshDict;
}

// Exported by SnappyHexMesh GUI add-on for Blender v1.8
// Source file: /Users/fabair/Documents/CFD/flange.blend
// Export date: 2025-08-31 12:31:47.442742

convertToMeters 1;

vertices
(
    ( -0.0264 -0.0279 -0.024 )
    ( 0.0264 -0.0279 -0.024 )
    ( 0.0264 0.0228 -0.024 )
    ( -0.0264 0.0228 -0.024 )
    ( -0.0264 -0.0279 0.0027 )
    ( 0.0264 -0.0279 0.0027 ) 
    ( 0.0264 0.0228 0.0027 ) 
    ( -0.0264 0.0228 0.0027 ) 
);

blocks
(
    hex (0 1 2 3 4 5 6 7) (176 169 89) simpleGrading (1 1 1)
);

edges
(
);

boundary
(
    world
    {
        type patch;
        faces
        (
            (3 7 6 2)
            (0 4 7 3)
            (2 6 5 1)
            (1 5 4 0)
            (0 3 2 1)
            (4 5 6 7)
        );
    }
);
