FoamFile
{
    version     2.0;
    format      ascii;
    class       dictionary;
    object      blockMeshDict;
}

// Exported by SnappyHexMesh GUI add-on for Blender v1.8
// Source file: /Users/fabair/Documents/CFD/flange.blend
// Export date: 2025-08-28 09:54:01.719260

convertToMeters 1;

vertices
(
    ( -0.0265 -0.028 -0.0245 )
    ( 0.0265 -0.028 -0.0245 )
    ( 0.0265 0.023 -0.0245 )
    ( -0.0265 0.023 -0.0245 )
    ( -0.0265 -0.028 0.003 )
    ( 0.0265 -0.028 0.003 ) 
    ( 0.0265 0.023 0.003 ) 
    ( -0.0265 0.023 0.003 ) 
);

blocks
(
    hex (0 1 2 3 4 5 6 7) (106 102 55) simpleGrading (1 1 1)
);

edges
(
);

boundary
(
    world
    {
        type patch;
        faces
        (
            (3 7 6 2)
            (0 4 7 3)
            (2 6 5 1)
            (1 5 4 0)
            (0 3 2 1)
            (4 5 6 7)
        );
    }
);
